Version 4
SHEET 1 880 680
WIRE 544 -16 304 -16
WIRE 304 0 304 -16
WIRE 304 128 304 80
WIRE 544 144 544 -16
WIRE 16 208 -64 208
WIRE 176 208 96 208
WIRE 256 208 176 208
WIRE 176 240 176 208
FLAG 304 224 0
FLAG 176 320 0
FLAG -64 288 0
FLAG 544 224 0
SYMBOL nmos 256 128 R0
SYMATTR InstName M1
SYMATTR Value AO6408
SYMBOL res 288 -16 R0
SYMATTR InstName R1
SYMATTR Value 51
SYMBOL res 160 224 R0
SYMATTR InstName R2
SYMATTR Value 10k
SYMBOL res 0 192 M90
WINDOW 0 0 56 VBottom 2
WINDOW 3 32 56 VTop 2
SYMATTR InstName R3
SYMATTR Value 1k
SYMBOL voltage -64 192 R0
WINDOW 123 0 0 Left 2
WINDOW 39 0 0 Left 2
SYMATTR InstName V1
SYMATTR Value PULSE(0 5 0 0 0 5 10)
SYMBOL voltage 544 128 R0
WINDOW 123 0 0 Left 2
WINDOW 39 0 0 Left 2
SYMATTR InstName V2
SYMATTR Value 18
TEXT -98 344 Left 2 !.tran 0 10 0 0.001
